Version 4
SHEET 1 3188 1444
WIRE 880 -288 880 -336
WIRE 672 -272 672 -320
WIRE 880 -256 880 -288
WIRE 1008 -240 1008 -304
WIRE 880 -160 880 -176
WIRE 1008 -160 1008 -176
WIRE 672 -144 672 -192
WIRE 1008 -144 1008 -160
WIRE 1008 -128 1008 -144
WIRE 752 208 752 176
WIRE 928 208 928 176
WIRE 1056 208 1056 176
WIRE 1184 208 1184 176
WIRE 1328 208 1328 176
WIRE 1472 208 1472 176
WIRE 1616 208 1616 176
WIRE 1744 208 1744 176
WIRE 2192 288 1920 288
WIRE 2496 320 2496 288
WIRE 2496 352 2496 320
WIRE 752 400 752 320
WIRE 928 400 928 320
WIRE 1056 400 1056 320
WIRE 1184 400 1184 320
WIRE 1328 400 1328 320
WIRE 1472 400 1472 320
WIRE 1616 400 1616 320
WIRE 1744 400 1744 320
WIRE 2016 416 2016 400
WIRE 2320 448 2320 400
WIRE -32 464 -32 416
WIRE 48 464 48 416
WIRE 128 464 128 416
WIRE 208 464 208 416
WIRE 288 464 288 416
WIRE 368 464 368 416
WIRE 448 464 448 416
WIRE 528 464 528 416
WIRE 2016 464 2016 416
WIRE 1920 480 1920 288
WIRE 1984 480 1920 480
WIRE 2320 480 2320 448
WIRE 2192 496 2192 288
WIRE 2192 496 2048 496
WIRE 2288 496 2192 496
WIRE 752 512 752 480
WIRE 800 512 752 512
WIRE 880 512 864 512
WIRE 928 512 928 480
WIRE 928 512 880 512
WIRE 1056 512 1056 480
WIRE 1056 512 1008 512
WIRE 1184 512 1184 480
WIRE 1184 512 1136 512
WIRE 1328 512 1328 480
WIRE 1328 512 1264 512
WIRE 1472 512 1472 480
WIRE 1472 512 1408 512
WIRE 1616 512 1616 480
WIRE 1616 512 1552 512
WIRE 1744 512 1744 480
WIRE 1744 512 1696 512
WIRE 1856 512 1744 512
WIRE 1984 512 1856 512
WIRE 2496 512 2496 432
WIRE 2496 512 2352 512
WIRE 2576 512 2496 512
WIRE 2288 528 2224 528
WIRE 2304 528 2288 528
WIRE 48 544 -32 544
WIRE 128 544 48 544
WIRE 208 544 128 544
WIRE 288 544 208 544
WIRE 368 544 288 544
WIRE 448 544 368 544
WIRE 528 544 448 544
WIRE 2016 576 2016 528
WIRE 2320 576 2320 544
WIRE -32 592 -32 544
WIRE 800 592 800 512
WIRE 880 592 880 512
WIRE 928 592 928 512
WIRE 1008 592 1008 512
WIRE 1056 592 1056 512
WIRE 1136 592 1136 512
WIRE 1184 592 1184 512
WIRE 1264 592 1264 512
WIRE 1328 592 1328 512
WIRE 1408 592 1408 512
WIRE 1472 592 1472 512
WIRE 1552 592 1552 512
WIRE 1616 592 1616 512
WIRE 1696 592 1696 512
WIRE 2352 592 2352 528
WIRE 2016 608 2016 576
WIRE 2320 608 2320 576
WIRE 752 640 752 512
WIRE 1952 640 1904 640
WIRE 752 752 752 720
WIRE 2208 752 2096 752
WIRE 1872 768 1760 768
WIRE 1824 800 1824 784
WIRE 1952 800 1952 640
WIRE 2096 800 2096 752
WIRE 2128 800 2096 800
WIRE 1760 816 1760 768
WIRE 1792 816 1760 816
WIRE 2208 816 2208 752
WIRE 2208 816 2192 816
WIRE 2224 816 2224 528
WIRE 2224 816 2208 816
WIRE 1872 832 1872 768
WIRE 1872 832 1856 832
WIRE 1920 832 1872 832
WIRE 2080 832 1984 832
WIRE 2128 832 2080 832
WIRE 1792 848 1648 848
WIRE 1920 864 1872 864
WIRE 1824 880 1824 864
WIRE 2160 896 2160 848
WIRE 1952 960 1952 896
WIRE 1648 976 1648 928
WIRE 1872 992 1872 864
FLAG 752 752 0
FLAG -32 592 0
FLAG 1856 512 Vout
FLAG -32 416 DAC0
FLAG 48 416 DAC1
FLAG 128 416 DAC2
FLAG 208 416 DAC3
FLAG 288 416 DAC4
FLAG 368 416 DAC5
FLAG 448 416 DAC6
FLAG 528 416 DAC7
FLAG 752 176 DAC0
FLAG 928 176 DAC1
FLAG 1056 176 DAC2
FLAG 1184 176 DAC3
FLAG 1328 176 DAC4
FLAG 1472 176 DAC5
FLAG 1616 176 DAC6
FLAG 1744 176 DAC7
FLAG 880 -160 0
FLAG 1008 -304 0
FLAG 672 -320 VDD
FLAG 672 -144 0
FLAG 880 -288 V12
FLAG 1008 -144 -V12
FLAG 2016 416 V12
FLAG 2016 576 -V12
FLAG 2496 320 VDD
FLAG 2320 448 V12
FLAG 2320 576 -V12
FLAG 2352 592 0
FLAG 2080 896 0
FLAG 1744 928 0
FLAG 1872 1072 0
FLAG 2160 896 -V12
FLAG 2160 784 V12
FLAG 1824 880 -V12
FLAG 1824 784 V12
FLAG 1952 960 0
FLAG 1648 976 0
FLAG 1904 720 0
SYMBOL res 896 576 R90
WINDOW 0 0 56 VBottom 2
WINDOW 3 32 56 VTop 2
SYMATTR InstName R22
SYMATTR Value 46.81k
SYMBOL res 896 496 R90
WINDOW 0 0 56 VBottom 2
WINDOW 3 32 56 VTop 2
SYMATTR InstName R47
SYMATTR Value 46.71k
SYMBOL res 1024 496 R90
WINDOW 0 0 56 VBottom 2
WINDOW 3 32 56 VTop 2
SYMATTR InstName R44
SYMATTR Value 46.66k
SYMBOL res 1024 576 R90
WINDOW 0 0 56 VBottom 2
WINDOW 3 32 56 VTop 2
SYMATTR InstName R43
SYMATTR Value 46.85k
SYMBOL res 1152 496 R90
WINDOW 0 0 56 VBottom 2
WINDOW 3 32 56 VTop 2
SYMATTR InstName R50
SYMATTR Value 46.66k
SYMBOL res 1152 576 R90
WINDOW 0 0 56 VBottom 2
WINDOW 3 32 56 VTop 2
SYMATTR InstName R30
SYMATTR Value 46.84k
SYMBOL res 1280 496 R90
WINDOW 0 0 56 VBottom 2
WINDOW 3 32 56 VTop 2
SYMATTR InstName R23
SYMATTR Value 46.67k
SYMBOL res 1280 576 R90
WINDOW 0 0 56 VBottom 2
WINDOW 3 32 56 VTop 2
SYMATTR InstName R6
SYMATTR Value 46.84k
SYMBOL res 1424 496 R90
WINDOW 0 0 56 VBottom 2
WINDOW 3 32 56 VTop 2
SYMATTR InstName R48
SYMATTR Value 46.68k
SYMBOL res 1424 576 R90
WINDOW 0 0 56 VBottom 2
WINDOW 3 32 56 VTop 2
SYMATTR InstName R36
SYMATTR Value 46.81k
SYMBOL res 1568 496 R90
WINDOW 0 0 56 VBottom 2
WINDOW 3 32 56 VTop 2
SYMATTR InstName R10
SYMATTR Value 46.7k
SYMBOL res 1568 576 R90
WINDOW 0 0 56 VBottom 2
WINDOW 3 32 56 VTop 2
SYMATTR InstName R28
SYMATTR Value 46.81k
SYMBOL res 1712 496 R90
WINDOW 0 0 56 VBottom 2
WINDOW 3 32 56 VTop 2
SYMATTR InstName R33
SYMATTR Value 46.7k
SYMBOL res 1712 576 R90
WINDOW 0 0 56 VBottom 2
WINDOW 3 32 56 VTop 2
SYMATTR InstName R25
SYMATTR Value 46.81k
SYMBOL res 768 736 R180
WINDOW 0 36 76 Left 2
WINDOW 3 36 40 Left 2
SYMATTR InstName R35
SYMATTR Value 46.72k
SYMBOL res 768 496 R180
WINDOW 0 36 76 Left 2
WINDOW 3 36 40 Left 2
SYMATTR InstName R27
SYMATTR Value 46.72k
SYMBOL res 944 496 R180
WINDOW 0 36 76 Left 2
WINDOW 3 36 40 Left 2
SYMATTR InstName R5
SYMATTR Value 46.73k
SYMBOL res 1072 496 R180
WINDOW 0 36 76 Left 2
WINDOW 3 36 40 Left 2
SYMATTR InstName R12
SYMATTR Value 46.73k
SYMBOL res 1200 496 R180
WINDOW 0 36 76 Left 2
WINDOW 3 36 40 Left 2
SYMATTR InstName R37
SYMATTR Value 46.73k
SYMBOL res 1344 496 R180
WINDOW 0 36 76 Left 2
WINDOW 3 36 40 Left 2
SYMATTR InstName R34
SYMATTR Value 46.74k
SYMBOL res 1488 496 R180
WINDOW 0 36 76 Left 2
WINDOW 3 36 40 Left 2
SYMATTR InstName R11
SYMATTR Value 46.77k
SYMBOL res 1632 496 R180
WINDOW 0 36 76 Left 2
WINDOW 3 36 40 Left 2
SYMATTR InstName R45
SYMATTR Value 46.75k
SYMBOL res 1760 496 R180
WINDOW 0 36 76 Left 2
WINDOW 3 36 40 Left 2
SYMATTR InstName R13
SYMATTR Value 46.8k
SYMBOL CD4050B 816 256 R90
SYMATTR InstName U1
SYMBOL CD4050B 992 256 R90
SYMATTR InstName U2
SYMBOL CD4050B 1120 256 R90
SYMATTR InstName U3
SYMBOL CD4050B 1248 256 R90
SYMATTR InstName U4
SYMBOL CD4050B 1392 256 R90
SYMATTR InstName U5
SYMBOL CD4050B 1536 256 R90
SYMATTR InstName U6
SYMBOL CD4050B 1680 256 R90
SYMATTR InstName U7
SYMBOL CD4050B 1808 256 R90
SYMATTR InstName U8
SYMBOL voltage -32 448 R0
WINDOW 123 0 0 Left 0
WINDOW 39 0 0 Left 0
SYMATTR InstName V0
SYMATTR Value PULSE(0 5 1ms 10ns 10ns 1ms 2ms)
SYMBOL voltage 48 448 R0
WINDOW 123 0 0 Left 0
WINDOW 39 0 0 Left 0
SYMATTR InstName V1
SYMATTR Value PULSE(0 5 2ms 10ns 10ns 2ms 4ms)
SYMBOL voltage 128 448 R0
WINDOW 123 0 0 Left 0
WINDOW 39 0 0 Left 0
SYMATTR InstName V2
SYMATTR Value PULSE(0 5 4ms 10ns 10ns 4ms 8ms)
SYMBOL voltage 208 448 R0
WINDOW 123 0 0 Left 0
WINDOW 39 0 0 Left 0
SYMATTR InstName V3
SYMATTR Value PULSE(0 5 8ms 10ns 10ns 8ms 16ms)
SYMBOL voltage 288 448 R0
WINDOW 123 0 0 Left 0
WINDOW 39 0 0 Left 0
SYMATTR InstName V4
SYMATTR Value PULSE(0 5 16ms 10ns 10ns 16ms 32ms)
SYMBOL voltage 368 448 R0
WINDOW 123 0 0 Left 0
WINDOW 39 0 0 Left 0
SYMATTR InstName V5
SYMATTR Value PULSE(0 5 32ms 10ns 10ns 32ms 64ms)
SYMBOL voltage 448 448 R0
WINDOW 123 0 0 Left 0
WINDOW 39 0 0 Left 0
SYMATTR InstName V6
SYMATTR Value PULSE(0 5 64ms 10ns 10ns 64ms 128ms)
SYMBOL voltage 528 448 R0
WINDOW 123 0 0 Left 0
WINDOW 39 24 124 Left 2
SYMATTR SpiceLine Rser=0
SYMATTR InstName V7
SYMATTR Value PULSE(0 5 128ms 10ns 10ns 128ms 256ms)
SYMBOL voltage 880 -272 R0
WINDOW 123 0 0 Left 2
WINDOW 39 24 124 Left 2
SYMATTR InstName V8
SYMATTR Value +12
SYMBOL voltage 1008 -256 R0
WINDOW 123 0 0 Left 2
WINDOW 39 24 124 Left 2
SYMATTR InstName V9
SYMATTR Value +12
SYMBOL voltage 672 -288 R0
WINDOW 123 0 0 Left 2
WINDOW 39 24 124 Left 2
SYMATTR SpiceLine Rser=0
SYMATTR InstName V10
SYMATTR Value 5
SYMBOL TL07x 2016 432 R0
SYMATTR InstName U9
SYMBOL LM311 2320 448 R0
SYMATTR InstName U10
SYMBOL res 2480 336 R0
SYMATTR InstName R1
SYMATTR Value 680
SYMBOL TL07x 2160 752 R0
SYMATTR InstName U11
SYMBOL CD4066 1952 848 R0
SYMATTR InstName U12
SYMBOL cap 2064 832 R0
SYMATTR InstName C1
SYMATTR Value 1nf
SYMBOL TL07x 1824 768 R0
SYMATTR InstName U13
SYMBOL voltage 1872 976 R0
WINDOW 123 0 0 Left 0
WINDOW 39 0 0 Left 0
SYMATTR InstName V12
SYMATTR Value PULSE(0 5 0.07 0 0 0.01 0.08)
SYMBOL voltage 1648 832 R0
WINDOW 123 0 0 Left 0
WINDOW 39 0 0 Left 0
SYMATTR InstName V11
SYMATTR Value SINE(0 5 1000)
SYMBOL voltage 1904 624 R0
WINDOW 123 0 0 Left 0
WINDOW 39 0 0 Left 0
SYMATTR InstName V13
SYMATTR Value 5
TEXT 1344 -120 Left 2 !.lib cd4000_v.lib
TEXT 1344 -328 Left 2 !.tran 0 1000 0
TEXT 1344 -176 Left 2 !.lib CD4066.sub
TEXT 1344 -232 Left 2 !.model sw1 sw(Vt=0.5 Ron=0.1 Roff=1T)
TEXT 1344 -272 Left 2 !.include TL071.mod
